!-Generator IDFEditor 1.48
!-Option OriginalOrderTop UseSpecialFormat

!-NOTE: All comments with '!-' are ignored by the IDFEditor and are generated automatically.
!-      Use '!' comments if they need to be retained when using the IDFEditor.

ShadingProperty:Reflectance,
    shdSrf_0_0_21aa6749-1f43-4bac-9f28-92127f08c6d9_0,  !- Shading Surface Name
    0.3,                     !- Diffuse Solar Reflectance of Unglazed Part of Shading Surface
    0.3;                     !- Diffuse Visible Reflectance of Unglazed Part of Shading Surface

ShadingProperty:Reflectance,
    shdSrf_0_1_f20ebb41-89db-41aa-ae87-73355060fea8_0,  !- Shading Surface Name
    0.3,                     !- Diffuse Solar Reflectance of Unglazed Part of Shading Surface
    0.3;                     !- Diffuse Visible Reflectance of Unglazed Part of Shading Surface

ShadingProperty:Reflectance,
    shdSrf_0_2_4345cc6a-b5fd-47fb-b95a-b3f5669bc74f_0,  !- Shading Surface Name
    0.3,                     !- Diffuse Solar Reflectance of Unglazed Part of Shading Surface
    0.3;                     !- Diffuse Visible Reflectance of Unglazed Part of Shading Surface

ShadingProperty:Reflectance,
    shdSrf_0_3_25cf418b-b8fe-4e67-9e6c-0ee5b81d39a8_0,  !- Shading Surface Name
    0.3,                     !- Diffuse Solar Reflectance of Unglazed Part of Shading Surface
    0.3;                     !- Diffuse Visible Reflectance of Unglazed Part of Shading Surface

ShadingProperty:Reflectance,
    shdSrf_0_4_7cc84bab-a061-4361-8551-df5ef61c18ea_0,  !- Shading Surface Name
    0.3,                     !- Diffuse Solar Reflectance of Unglazed Part of Shading Surface
    0.3;                     !- Diffuse Visible Reflectance of Unglazed Part of Shading Surface

ShadingProperty:Reflectance,
    shdSrf_0_5_5bdc8cae-2ec2-419d-b5c8-fac9c8d34c54_0,  !- Shading Surface Name
    0.3,                     !- Diffuse Solar Reflectance of Unglazed Part of Shading Surface
    0.3;                     !- Diffuse Visible Reflectance of Unglazed Part of Shading Surface

ShadingProperty:Reflectance,
    shdSrf_0_6_144d50f4-27f4-4c67-a9d4-fc88228b9b3d_0,  !- Shading Surface Name
    0.3,                     !- Diffuse Solar Reflectance of Unglazed Part of Shading Surface
    0.3;                     !- Diffuse Visible Reflectance of Unglazed Part of Shading Surface

ShadingProperty:Reflectance,
    shdSrf_1_0_f282fc7b-f45f-43df-9029-4ad7877a4ba3_0,  !- Shading Surface Name
    0.3,                     !- Diffuse Solar Reflectance of Unglazed Part of Shading Surface
    0.3;                     !- Diffuse Visible Reflectance of Unglazed Part of Shading Surface

ShadingProperty:Reflectance,
    shdSrf_1_1_41cd37a3-d0cd-4a56-a442-16f8d813e287_0,  !- Shading Surface Name
    0.3,                     !- Diffuse Solar Reflectance of Unglazed Part of Shading Surface
    0.3;                     !- Diffuse Visible Reflectance of Unglazed Part of Shading Surface

ShadingProperty:Reflectance,
    shdSrf_1_2_37a6b6aa-b891-4ee5-8cfc-aea00322f469_0,  !- Shading Surface Name
    0.3,                     !- Diffuse Solar Reflectance of Unglazed Part of Shading Surface
    0.3;                     !- Diffuse Visible Reflectance of Unglazed Part of Shading Surface

ShadingProperty:Reflectance,
    shdSrf_1_3_aa4ab614-60c0-446f-b808-ca84f93cd2b8_0,  !- Shading Surface Name
    0.3,                     !- Diffuse Solar Reflectance of Unglazed Part of Shading Surface
    0.3;                     !- Diffuse Visible Reflectance of Unglazed Part of Shading Surface

ShadingProperty:Reflectance,
    shdSrf_1_4_0267a9f5-008c-4b2a-b24d-e16448c1aeee_0,  !- Shading Surface Name
    0.3,                     !- Diffuse Solar Reflectance of Unglazed Part of Shading Surface
    0.3;                     !- Diffuse Visible Reflectance of Unglazed Part of Shading Surface

ShadingProperty:Reflectance,
    shdSrf_1_5_922271fb-33c6-4e63-8761-bf09a8f87e43_0,  !- Shading Surface Name
    0.3,                     !- Diffuse Solar Reflectance of Unglazed Part of Shading Surface
    0.3;                     !- Diffuse Visible Reflectance of Unglazed Part of Shading Surface

ShadingProperty:Reflectance,
    shdSrf_2_0_69ec69b0-337d-4def-843f-9fd9731069d7_0,  !- Shading Surface Name
    0.3,                     !- Diffuse Solar Reflectance of Unglazed Part of Shading Surface
    0.3;                     !- Diffuse Visible Reflectance of Unglazed Part of Shading Surface

ShadingProperty:Reflectance,
    shdSrf_2_1_3c4d0b11-4c6d-4c6a-a3f8-528c2a359927_0,  !- Shading Surface Name
    0.3,                     !- Diffuse Solar Reflectance of Unglazed Part of Shading Surface
    0.3;                     !- Diffuse Visible Reflectance of Unglazed Part of Shading Surface

ShadingProperty:Reflectance,
    shdSrf_2_2_48f55c79-3507-4110-b399-c646d07bded7_0,  !- Shading Surface Name
    0.3,                     !- Diffuse Solar Reflectance of Unglazed Part of Shading Surface
    0.3;                     !- Diffuse Visible Reflectance of Unglazed Part of Shading Surface

ShadingProperty:Reflectance,
    shdSrf_2_3_8ae82ba0-c348-4555-87e3-89f35ecaa5c8_0,  !- Shading Surface Name
    0.3,                     !- Diffuse Solar Reflectance of Unglazed Part of Shading Surface
    0.3;                     !- Diffuse Visible Reflectance of Unglazed Part of Shading Surface

ShadingProperty:Reflectance,
    shdSrf_2_4_acf0747b-646d-4713-ae58-b31b3199be59_0,  !- Shading Surface Name
    0.3,                     !- Diffuse Solar Reflectance of Unglazed Part of Shading Surface
    0.3;                     !- Diffuse Visible Reflectance of Unglazed Part of Shading Surface

ShadingProperty:Reflectance,
    shdSrf_2_5_32a83310-2f02-44eb-b9e5-c3fae5dda568_0,  !- Shading Surface Name
    0.3,                     !- Diffuse Solar Reflectance of Unglazed Part of Shading Surface
    0.3;                     !- Diffuse Visible Reflectance of Unglazed Part of Shading Surface

ShadingProperty:Reflectance,
    shdSrf_3_0_d47a67c4-570f-4624-bad0-35b7492a9876_0,  !- Shading Surface Name
    0.3,                     !- Diffuse Solar Reflectance of Unglazed Part of Shading Surface
    0.3;                     !- Diffuse Visible Reflectance of Unglazed Part of Shading Surface

ShadingProperty:Reflectance,
    shdSrf_3_1_3b3269b0-e041-40ac-9ae1-9bfd14057305_0,  !- Shading Surface Name
    0.3,                     !- Diffuse Solar Reflectance of Unglazed Part of Shading Surface
    0.3;                     !- Diffuse Visible Reflectance of Unglazed Part of Shading Surface

ShadingProperty:Reflectance,
    shdSrf_3_2_5d774172-83e8-4fb1-907f-bd9d0d75076c_0,  !- Shading Surface Name
    0.3,                     !- Diffuse Solar Reflectance of Unglazed Part of Shading Surface
    0.3;                     !- Diffuse Visible Reflectance of Unglazed Part of Shading Surface

ShadingProperty:Reflectance,
    shdSrf_3_3_3c85909c-7c80-4c75-bfa6-307e8f1cc866_0,  !- Shading Surface Name
    0.3,                     !- Diffuse Solar Reflectance of Unglazed Part of Shading Surface
    0.3;                     !- Diffuse Visible Reflectance of Unglazed Part of Shading Surface

ShadingProperty:Reflectance,
    shdSrf_3_4_98dc74bc-a0e6-4d9f-9ebd-72caac2dd045_0,  !- Shading Surface Name
    0.3,                     !- Diffuse Solar Reflectance of Unglazed Part of Shading Surface
    0.3;                     !- Diffuse Visible Reflectance of Unglazed Part of Shading Surface

ShadingProperty:Reflectance,
    shdSrf_3_5_4375aaa4-48ed-4820-814f-176039854a5c_0,  !- Shading Surface Name
    0.3,                     !- Diffuse Solar Reflectance of Unglazed Part of Shading Surface
    0.3;                     !- Diffuse Visible Reflectance of Unglazed Part of Shading Surface

ShadingProperty:Reflectance,
    shdSrf_4_0_e848e950-de3f-4675-aba4-58dec41b1de4_0,  !- Shading Surface Name
    0.3,                     !- Diffuse Solar Reflectance of Unglazed Part of Shading Surface
    0.3;                     !- Diffuse Visible Reflectance of Unglazed Part of Shading Surface

ShadingProperty:Reflectance,
    shdSrf_4_1_bc82e82e-13d4-4e08-acdb-e39eda134465_0,  !- Shading Surface Name
    0.3,                     !- Diffuse Solar Reflectance of Unglazed Part of Shading Surface
    0.3;                     !- Diffuse Visible Reflectance of Unglazed Part of Shading Surface

ShadingProperty:Reflectance,
    shdSrf_4_2_ac2291fa-65e0-4f8a-bc55-0343d39f76f1_0,  !- Shading Surface Name
    0.3,                     !- Diffuse Solar Reflectance of Unglazed Part of Shading Surface
    0.3;                     !- Diffuse Visible Reflectance of Unglazed Part of Shading Surface

ShadingProperty:Reflectance,
    shdSrf_4_3_f1cf2cc2-6a65-4849-b913-006b13aa38c5_0,  !- Shading Surface Name
    0.3,                     !- Diffuse Solar Reflectance of Unglazed Part of Shading Surface
    0.3;                     !- Diffuse Visible Reflectance of Unglazed Part of Shading Surface

ShadingProperty:Reflectance,
    shdSrf_4_4_f4a2fc21-e2fb-4a17-b0cb-8d187ae5b1f7_0,  !- Shading Surface Name
    0.3,                     !- Diffuse Solar Reflectance of Unglazed Part of Shading Surface
    0.3;                     !- Diffuse Visible Reflectance of Unglazed Part of Shading Surface

ShadingProperty:Reflectance,
    shdSrf_4_5_4168c8a4-fadf-4fff-a393-99e8b06b59bb_0,  !- Shading Surface Name
    0.3,                     !- Diffuse Solar Reflectance of Unglazed Part of Shading Surface
    0.3;                     !- Diffuse Visible Reflectance of Unglazed Part of Shading Surface

ShadingProperty:Reflectance,
    shdSrf_4_6_72f0c56d-d1a9-449b-955a-252b249c35d3_0,  !- Shading Surface Name
    0.3,                     !- Diffuse Solar Reflectance of Unglazed Part of Shading Surface
    0.3;                     !- Diffuse Visible Reflectance of Unglazed Part of Shading Surface

ShadingProperty:Reflectance,
    shdSrf_4_7_a872107e-9189-497e-b3ce-ff0b6e502052_0,  !- Shading Surface Name
    0.3,                     !- Diffuse Solar Reflectance of Unglazed Part of Shading Surface
    0.3;                     !- Diffuse Visible Reflectance of Unglazed Part of Shading Surface

ShadingProperty:Reflectance,
    shdSrf_4_8_49a91838-7571-4c0d-bf7f-c43364db09ac_0,  !- Shading Surface Name
    0.3,                     !- Diffuse Solar Reflectance of Unglazed Part of Shading Surface
    0.3;                     !- Diffuse Visible Reflectance of Unglazed Part of Shading Surface

ShadingProperty:Reflectance,
    shdSrf_4_9_2f48f8fa-9ae0-4ec7-8933-9e507a61e188_0,  !- Shading Surface Name
    0.3,                     !- Diffuse Solar Reflectance of Unglazed Part of Shading Surface
    0.3;                     !- Diffuse Visible Reflectance of Unglazed Part of Shading Surface

ShadingProperty:Reflectance,
    shdSrf_5_0_9e9a994f-ce6e-4da0-8193-a2bcf1a681b0_0,  !- Shading Surface Name
    0.3,                     !- Diffuse Solar Reflectance of Unglazed Part of Shading Surface
    0.3;                     !- Diffuse Visible Reflectance of Unglazed Part of Shading Surface

ShadingProperty:Reflectance,
    shdSrf_5_1_98351b5a-fbc0-47ab-9ec1-aaa1314d9fe7_0,  !- Shading Surface Name
    0.3,                     !- Diffuse Solar Reflectance of Unglazed Part of Shading Surface
    0.3;                     !- Diffuse Visible Reflectance of Unglazed Part of Shading Surface

ShadingProperty:Reflectance,
    shdSrf_5_2_0051cbf4-ede3-4526-aabd-cdfee344cb95_0,  !- Shading Surface Name
    0.3,                     !- Diffuse Solar Reflectance of Unglazed Part of Shading Surface
    0.3;                     !- Diffuse Visible Reflectance of Unglazed Part of Shading Surface

ShadingProperty:Reflectance,
    shdSrf_5_3_673f5847-9263-429a-8564-7b6c9780bb6c_0,  !- Shading Surface Name
    0.3,                     !- Diffuse Solar Reflectance of Unglazed Part of Shading Surface
    0.3;                     !- Diffuse Visible Reflectance of Unglazed Part of Shading Surface

ShadingProperty:Reflectance,
    shdSrf_5_4_66ad07d4-9bf6-4a9a-9dd2-1351e45a4bb9_0,  !- Shading Surface Name
    0.3,                     !- Diffuse Solar Reflectance of Unglazed Part of Shading Surface
    0.3;                     !- Diffuse Visible Reflectance of Unglazed Part of Shading Surface

ShadingProperty:Reflectance,
    shdSrf_5_5_5ca47356-9d77-4bc6-9c4c-070e62156697_0,  !- Shading Surface Name
    0.3,                     !- Diffuse Solar Reflectance of Unglazed Part of Shading Surface
    0.3;                     !- Diffuse Visible Reflectance of Unglazed Part of Shading Surface

ShadingProperty:Reflectance,
    shdSrf_6_0_148df1f9-b03f-41dc-b383-637fb961f290_0,  !- Shading Surface Name
    0.3,                     !- Diffuse Solar Reflectance of Unglazed Part of Shading Surface
    0.3;                     !- Diffuse Visible Reflectance of Unglazed Part of Shading Surface

ShadingProperty:Reflectance,
    shdSrf_6_1_df53780f-1cc0-4c84-8d3d-d16ff71fb77d_0,  !- Shading Surface Name
    0.3,                     !- Diffuse Solar Reflectance of Unglazed Part of Shading Surface
    0.3;                     !- Diffuse Visible Reflectance of Unglazed Part of Shading Surface

ShadingProperty:Reflectance,
    shdSrf_6_2_5539d4f7-a4c3-4846-9f38-fb17c9df2d6e_0,  !- Shading Surface Name
    0.3,                     !- Diffuse Solar Reflectance of Unglazed Part of Shading Surface
    0.3;                     !- Diffuse Visible Reflectance of Unglazed Part of Shading Surface

ShadingProperty:Reflectance,
    shdSrf_6_3_cdf5aa94-0866-4599-871c-2becb7350f97_0,  !- Shading Surface Name
    0.3,                     !- Diffuse Solar Reflectance of Unglazed Part of Shading Surface
    0.3;                     !- Diffuse Visible Reflectance of Unglazed Part of Shading Surface

ShadingProperty:Reflectance,
    shdSrf_6_4_9a189101-88d4-47e1-9645-f15a597fb552_0,  !- Shading Surface Name
    0.3,                     !- Diffuse Solar Reflectance of Unglazed Part of Shading Surface
    0.3;                     !- Diffuse Visible Reflectance of Unglazed Part of Shading Surface

ShadingProperty:Reflectance,
    shdSrf_6_5_f180d081-7481-45cd-95ad-9787b9b1dd47_0,  !- Shading Surface Name
    0.3,                     !- Diffuse Solar Reflectance of Unglazed Part of Shading Surface
    0.3;                     !- Diffuse Visible Reflectance of Unglazed Part of Shading Surface

ShadingProperty:Reflectance,
    shdSrf_7_0_a269d132-4cd5-4682-b8cd-55944872355e_0,  !- Shading Surface Name
    0.3,                     !- Diffuse Solar Reflectance of Unglazed Part of Shading Surface
    0.3;                     !- Diffuse Visible Reflectance of Unglazed Part of Shading Surface

ShadingProperty:Reflectance,
    shdSrf_7_1_7157e5aa-4350-48b5-a72f-4d69f8816a8b_0,  !- Shading Surface Name
    0.3,                     !- Diffuse Solar Reflectance of Unglazed Part of Shading Surface
    0.3;                     !- Diffuse Visible Reflectance of Unglazed Part of Shading Surface

ShadingProperty:Reflectance,
    shdSrf_7_2_d023a6c0-b6be-4585-8045-5ab02fee4525_0,  !- Shading Surface Name
    0.3,                     !- Diffuse Solar Reflectance of Unglazed Part of Shading Surface
    0.3;                     !- Diffuse Visible Reflectance of Unglazed Part of Shading Surface

ShadingProperty:Reflectance,
    shdSrf_7_3_63d98541-5afb-4a64-a08b-714db6ae987f_0,  !- Shading Surface Name
    0.3,                     !- Diffuse Solar Reflectance of Unglazed Part of Shading Surface
    0.3;                     !- Diffuse Visible Reflectance of Unglazed Part of Shading Surface

ShadingProperty:Reflectance,
    shdSrf_7_4_25675c26-d533-4feb-b176-be541c5d6a3c_0,  !- Shading Surface Name
    0.3,                     !- Diffuse Solar Reflectance of Unglazed Part of Shading Surface
    0.3;                     !- Diffuse Visible Reflectance of Unglazed Part of Shading Surface

ShadingProperty:Reflectance,
    shdSrf_7_5_c78deefc-c745-4cab-b68f-fa0f2c416184_0,  !- Shading Surface Name
    0.3,                     !- Diffuse Solar Reflectance of Unglazed Part of Shading Surface
    0.3;                     !- Diffuse Visible Reflectance of Unglazed Part of Shading Surface

ShadingProperty:Reflectance,
    shdSrf_8_0_dfe58535-d072-474e-9557-c01a69f18735_0,  !- Shading Surface Name
    0.3,                     !- Diffuse Solar Reflectance of Unglazed Part of Shading Surface
    0.3;                     !- Diffuse Visible Reflectance of Unglazed Part of Shading Surface

ShadingProperty:Reflectance,
    shdSrf_8_1_a0e3487b-5c87-4048-87ea-9c8ced29c4ce_0,  !- Shading Surface Name
    0.3,                     !- Diffuse Solar Reflectance of Unglazed Part of Shading Surface
    0.3;                     !- Diffuse Visible Reflectance of Unglazed Part of Shading Surface

ShadingProperty:Reflectance,
    shdSrf_8_2_9b9d4ccd-0398-4900-801b-0b3451a356f7_0,  !- Shading Surface Name
    0.3,                     !- Diffuse Solar Reflectance of Unglazed Part of Shading Surface
    0.3;                     !- Diffuse Visible Reflectance of Unglazed Part of Shading Surface

ShadingProperty:Reflectance,
    shdSrf_8_3_67bba1b7-b564-4438-8a33-b52f64cdc6ca_0,  !- Shading Surface Name
    0.3,                     !- Diffuse Solar Reflectance of Unglazed Part of Shading Surface
    0.3;                     !- Diffuse Visible Reflectance of Unglazed Part of Shading Surface

ShadingProperty:Reflectance,
    shdSrf_8_4_649cc63d-9cea-467e-9d8d-47bf79b457ac_0,  !- Shading Surface Name
    0.3,                     !- Diffuse Solar Reflectance of Unglazed Part of Shading Surface
    0.3;                     !- Diffuse Visible Reflectance of Unglazed Part of Shading Surface

ShadingProperty:Reflectance,
    shdSrf_8_5_0dc43137-10b9-40c5-bd05-266e3b89c985_0,  !- Shading Surface Name
    0.3,                     !- Diffuse Solar Reflectance of Unglazed Part of Shading Surface
    0.3;                     !- Diffuse Visible Reflectance of Unglazed Part of Shading Surface

ShadingProperty:Reflectance,
    shdSrf_9_0_8d26d286-19bf-44e1-b651-f75adbbc1f71_0,  !- Shading Surface Name
    0.3,                     !- Diffuse Solar Reflectance of Unglazed Part of Shading Surface
    0.3;                     !- Diffuse Visible Reflectance of Unglazed Part of Shading Surface

ShadingProperty:Reflectance,
    shdSrf_9_1_b972cea2-dc2a-42c3-9e6c-5103885c7229_0,  !- Shading Surface Name
    0.3,                     !- Diffuse Solar Reflectance of Unglazed Part of Shading Surface
    0.3;                     !- Diffuse Visible Reflectance of Unglazed Part of Shading Surface

ShadingProperty:Reflectance,
    shdSrf_9_2_48bebe98-bfeb-4d04-8bfc-eb3b27c35287_0,  !- Shading Surface Name
    0.3,                     !- Diffuse Solar Reflectance of Unglazed Part of Shading Surface
    0.3;                     !- Diffuse Visible Reflectance of Unglazed Part of Shading Surface

ShadingProperty:Reflectance,
    shdSrf_9_3_2fe998db-9f2d-40ea-a863-5e66930ae885_0,  !- Shading Surface Name
    0.3,                     !- Diffuse Solar Reflectance of Unglazed Part of Shading Surface
    0.3;                     !- Diffuse Visible Reflectance of Unglazed Part of Shading Surface

ShadingProperty:Reflectance,
    shdSrf_9_4_034f9f32-7dfd-4000-9dca-cbeced996964_0,  !- Shading Surface Name
    0.3,                     !- Diffuse Solar Reflectance of Unglazed Part of Shading Surface
    0.3;                     !- Diffuse Visible Reflectance of Unglazed Part of Shading Surface

ShadingProperty:Reflectance,
    shdSrf_9_5_a7924afc-56d5-4934-b73d-39e66e22c5c8_0,  !- Shading Surface Name
    0.3,                     !- Diffuse Solar Reflectance of Unglazed Part of Shading Surface
    0.3;                     !- Diffuse Visible Reflectance of Unglazed Part of Shading Surface

ShadingProperty:Reflectance,
    shdSrf_9_6_34aa0517-ecc0-4a43-b856-4ff5b19363b7_0,  !- Shading Surface Name
    0.3,                     !- Diffuse Solar Reflectance of Unglazed Part of Shading Surface
    0.3;                     !- Diffuse Visible Reflectance of Unglazed Part of Shading Surface

ShadingProperty:Reflectance,
    shdSrf_9_7_772b0c0b-10ea-4f7c-8363-1b04cf0c0cac_0,  !- Shading Surface Name
    0.3,                     !- Diffuse Solar Reflectance of Unglazed Part of Shading Surface
    0.3;                     !- Diffuse Visible Reflectance of Unglazed Part of Shading Surface

ShadingProperty:Reflectance,
    shdSrf_10_0_b1ff1444-2e96-4811-a1a8-fd5bfd5031a4_0,  !- Shading Surface Name
    0.3,                     !- Diffuse Solar Reflectance of Unglazed Part of Shading Surface
    0.3;                     !- Diffuse Visible Reflectance of Unglazed Part of Shading Surface

ShadingProperty:Reflectance,
    shdSrf_10_1_ee5b8905-157d-44c1-b89b-f05e2ba103bd_0,  !- Shading Surface Name
    0.3,                     !- Diffuse Solar Reflectance of Unglazed Part of Shading Surface
    0.3;                     !- Diffuse Visible Reflectance of Unglazed Part of Shading Surface

ShadingProperty:Reflectance,
    shdSrf_10_2_c0b04874-8169-400e-ba74-40546868ba98_0,  !- Shading Surface Name
    0.3,                     !- Diffuse Solar Reflectance of Unglazed Part of Shading Surface
    0.3;                     !- Diffuse Visible Reflectance of Unglazed Part of Shading Surface

ShadingProperty:Reflectance,
    shdSrf_10_3_43e823f9-d21c-4fab-8d6e-eb53da5df69b_0,  !- Shading Surface Name
    0.3,                     !- Diffuse Solar Reflectance of Unglazed Part of Shading Surface
    0.3;                     !- Diffuse Visible Reflectance of Unglazed Part of Shading Surface

ShadingProperty:Reflectance,
    shdSrf_10_4_11b78206-52b1-414a-9acd-05bf91c07085_0,  !- Shading Surface Name
    0.3,                     !- Diffuse Solar Reflectance of Unglazed Part of Shading Surface
    0.3;                     !- Diffuse Visible Reflectance of Unglazed Part of Shading Surface

ShadingProperty:Reflectance,
    shdSrf_10_5_b628467a-9ac5-4cba-9cba-d15d5203ded8_0,  !- Shading Surface Name
    0.3,                     !- Diffuse Solar Reflectance of Unglazed Part of Shading Surface
    0.3;                     !- Diffuse Visible Reflectance of Unglazed Part of Shading Surface

ShadingProperty:Reflectance,
    shdSrf_11_0_62eb008a-c982-4f6a-a117-39df78cac67f_0,  !- Shading Surface Name
    0.3,                     !- Diffuse Solar Reflectance of Unglazed Part of Shading Surface
    0.3;                     !- Diffuse Visible Reflectance of Unglazed Part of Shading Surface

ShadingProperty:Reflectance,
    shdSrf_11_1_5fac8b6e-5901-4044-b725-43906c82f5b2_0,  !- Shading Surface Name
    0.3,                     !- Diffuse Solar Reflectance of Unglazed Part of Shading Surface
    0.3;                     !- Diffuse Visible Reflectance of Unglazed Part of Shading Surface

ShadingProperty:Reflectance,
    shdSrf_11_2_9fd303be-57b2-45bd-bdbc-61be9569d0c2_0,  !- Shading Surface Name
    0.3,                     !- Diffuse Solar Reflectance of Unglazed Part of Shading Surface
    0.3;                     !- Diffuse Visible Reflectance of Unglazed Part of Shading Surface

ShadingProperty:Reflectance,
    shdSrf_11_3_3df5d7c1-3dd0-434f-81fd-3f1187ae0cf5_0,  !- Shading Surface Name
    0.3,                     !- Diffuse Solar Reflectance of Unglazed Part of Shading Surface
    0.3;                     !- Diffuse Visible Reflectance of Unglazed Part of Shading Surface

ShadingProperty:Reflectance,
    shdSrf_11_4_a79d1c91-ae41-4113-8931-a0b0f2942438_0,  !- Shading Surface Name
    0.3,                     !- Diffuse Solar Reflectance of Unglazed Part of Shading Surface
    0.3;                     !- Diffuse Visible Reflectance of Unglazed Part of Shading Surface

ShadingProperty:Reflectance,
    shdSrf_11_5_e65760ab-04dd-4cf1-80ad-fce243f1477a_0,  !- Shading Surface Name
    0.3,                     !- Diffuse Solar Reflectance of Unglazed Part of Shading Surface
    0.3;                     !- Diffuse Visible Reflectance of Unglazed Part of Shading Surface

ShadingProperty:Reflectance,
    shdSrf_11_6_b7c16bcc-1a02-4459-bd60-a25f642c0ed1_0,  !- Shading Surface Name
    0.3,                     !- Diffuse Solar Reflectance of Unglazed Part of Shading Surface
    0.3;                     !- Diffuse Visible Reflectance of Unglazed Part of Shading Surface

ShadingProperty:Reflectance,
    shdSrf_11_7_132e7767-7ca3-4758-9ea7-5a211e746149_0,  !- Shading Surface Name
    0.3,                     !- Diffuse Solar Reflectance of Unglazed Part of Shading Surface
    0.3;                     !- Diffuse Visible Reflectance of Unglazed Part of Shading Surface

ShadingProperty:Reflectance,
    shdSrf_11_8_c1161017-0b52-4b9a-9ba3-9b8c9cecf889_0,  !- Shading Surface Name
    0.3,                     !- Diffuse Solar Reflectance of Unglazed Part of Shading Surface
    0.3;                     !- Diffuse Visible Reflectance of Unglazed Part of Shading Surface

ShadingProperty:Reflectance,
    shdSrf_11_9_7e9c7396-0343-43f4-baf5-77c509317ca4_0,  !- Shading Surface Name
    0.3,                     !- Diffuse Solar Reflectance of Unglazed Part of Shading Surface
    0.3;                     !- Diffuse Visible Reflectance of Unglazed Part of Shading Surface

ShadingProperty:Reflectance,
    shdSrf_12_0_37c151db-a944-4de2-bca3-a0881ea037fc_0,  !- Shading Surface Name
    0.3,                     !- Diffuse Solar Reflectance of Unglazed Part of Shading Surface
    0.3;                     !- Diffuse Visible Reflectance of Unglazed Part of Shading Surface

ShadingProperty:Reflectance,
    shdSrf_12_1_f4d81109-9c94-4680-baae-b84f72370a2c_0,  !- Shading Surface Name
    0.3,                     !- Diffuse Solar Reflectance of Unglazed Part of Shading Surface
    0.3;                     !- Diffuse Visible Reflectance of Unglazed Part of Shading Surface

ShadingProperty:Reflectance,
    shdSrf_12_2_7a1e6644-1bdf-4061-bfef-ffa6c16d95bc_0,  !- Shading Surface Name
    0.3,                     !- Diffuse Solar Reflectance of Unglazed Part of Shading Surface
    0.3;                     !- Diffuse Visible Reflectance of Unglazed Part of Shading Surface

ShadingProperty:Reflectance,
    shdSrf_12_3_f5942d96-23bb-4d67-93e7-238bbb14e93e_0,  !- Shading Surface Name
    0.3,                     !- Diffuse Solar Reflectance of Unglazed Part of Shading Surface
    0.3;                     !- Diffuse Visible Reflectance of Unglazed Part of Shading Surface

ShadingProperty:Reflectance,
    shdSrf_12_4_76458b12-c766-482f-adab-734bf04faf9f_0,  !- Shading Surface Name
    0.3,                     !- Diffuse Solar Reflectance of Unglazed Part of Shading Surface
    0.3;                     !- Diffuse Visible Reflectance of Unglazed Part of Shading Surface

ShadingProperty:Reflectance,
    shdSrf_12_5_3375b100-7967-4e6a-b578-b0253f13a690_0,  !- Shading Surface Name
    0.3,                     !- Diffuse Solar Reflectance of Unglazed Part of Shading Surface
    0.3;                     !- Diffuse Visible Reflectance of Unglazed Part of Shading Surface

ShadingProperty:Reflectance,
    shdSrf_13_0_ed36ec44-39af-424d-a8a3-e6a7bbf736a9_0,  !- Shading Surface Name
    0.3,                     !- Diffuse Solar Reflectance of Unglazed Part of Shading Surface
    0.3;                     !- Diffuse Visible Reflectance of Unglazed Part of Shading Surface

ShadingProperty:Reflectance,
    shdSrf_13_1_6b4134d5-f8de-40d6-ab8d-56a0871d7b05_0,  !- Shading Surface Name
    0.3,                     !- Diffuse Solar Reflectance of Unglazed Part of Shading Surface
    0.3;                     !- Diffuse Visible Reflectance of Unglazed Part of Shading Surface

ShadingProperty:Reflectance,
    shdSrf_13_2_b3104bfd-24a1-4de4-af63-87b102076aed_0,  !- Shading Surface Name
    0.3,                     !- Diffuse Solar Reflectance of Unglazed Part of Shading Surface
    0.3;                     !- Diffuse Visible Reflectance of Unglazed Part of Shading Surface

ShadingProperty:Reflectance,
    shdSrf_13_3_0b5d5791-9b09-4823-9568-a361badc5c64_0,  !- Shading Surface Name
    0.3,                     !- Diffuse Solar Reflectance of Unglazed Part of Shading Surface
    0.3;                     !- Diffuse Visible Reflectance of Unglazed Part of Shading Surface

ShadingProperty:Reflectance,
    shdSrf_13_4_89a28b8c-78c7-440a-b8ea-0c093da561b6_0,  !- Shading Surface Name
    0.3,                     !- Diffuse Solar Reflectance of Unglazed Part of Shading Surface
    0.3;                     !- Diffuse Visible Reflectance of Unglazed Part of Shading Surface

ShadingProperty:Reflectance,
    shdSrf_13_5_a422af47-faf2-4fc6-a8e0-823ef57b697d_0,  !- Shading Surface Name
    0.3,                     !- Diffuse Solar Reflectance of Unglazed Part of Shading Surface
    0.3;                     !- Diffuse Visible Reflectance of Unglazed Part of Shading Surface

ShadingProperty:Reflectance,
    shdSrf_14_0_e49194b8-a137-4958-b97f-1cb128116f02_0,  !- Shading Surface Name
    0.3,                     !- Diffuse Solar Reflectance of Unglazed Part of Shading Surface
    0.3;                     !- Diffuse Visible Reflectance of Unglazed Part of Shading Surface

ShadingProperty:Reflectance,
    shdSrf_14_1_fac6d41e-5057-4a47-95f7-41d32ffc6a61_0,  !- Shading Surface Name
    0.3,                     !- Diffuse Solar Reflectance of Unglazed Part of Shading Surface
    0.3;                     !- Diffuse Visible Reflectance of Unglazed Part of Shading Surface

ShadingProperty:Reflectance,
    shdSrf_14_2_07cfab4f-a28c-46d9-acca-bc2c22c76d0e_0,  !- Shading Surface Name